  Page 1                                    Tue Aug 09 12:41:13 2016

  ******************************************************************
  *                           E P A N E T                          *
  *                   Hydraulic and Water Quality                  *
  *                   Analysis for Pipe Networks                   *
  *                         Version 2.1                            *
  ******************************************************************
  
  EPANET               Example               Network               1    
  A               simple               example               of         
  wall               reactions               are               included.
   
      Input Data File ................... C:\Users\mkiria01\Desktop\EpaGui-master\networks\Net1_Rossman2000_temp.inp
      Number of Junctions................ 9
      Number of Reservoirs............... 1
      Number of Tanks ................... 1
      Number of Pipes ................... 12
      Number of Pumps ................... 1
      Number of Valves .................. 0
      Headloss Formula .................. Hazen-Williams
      Hydraulic Timestep ................ 1.00 hrs
      Hydraulic Accuracy ................ 0.001000
      Status Check Frequency ............ 2
      Maximum Trials Checked ............ 10
      Damping Limit Threshold ........... 0.000000
      Maximum Trials .................... 40
      Quality Analysis .................. Chlorine
      Water Quality Time Step ........... 5.00 min
      Water Quality Tolerance ........... 0.01 mg/L
      Specific Gravity .................. 1.00
      Relative Kinematic Viscosity ...... 1.00
      Relative Chemical Diffusivity ..... 1.00
      Demand Multiplier ................. 1.00
      Total Duration .................... 24.00 hrs
      Reporting Criteria:
         All Nodes
         All Links
   
   
   
  Energy Usage:
  ----------------------------------------------------------------
             Usage   Avg.     Kw-hr      Avg.      Peak      Cost
  Pump      Factor Effic.       /m3        Kw        Kw      /day
  ----------------------------------------------------------------
  9         100.00  75.00      0.28     81.46     96.73      0.00
  ----------------------------------------------------------------
                                         Demand Charge:      0.00
                                         Total Cost:         0.00
   
   
  MINIMUM Node Results:
  ------------------------------------------------------------------
                  Elevation    Demand      Head  Pressure  Chlorine
  Node                    m      m3/h         m         m      mg/L
  ------------------------------------------------------------------
  10                 216.41      0.00    306.86     90.46      1.00
  11                 216.41     13.63    301.14     84.73      0.76
  12                 213.36     13.63    296.61     83.25      0.82
  13                 211.84      9.09    296.24     84.41      0.72
  21                 213.36     13.63    297.03     83.67      0.93
  22                 211.84     18.17    296.30     84.46      0.73
  23                 210.31     13.63    296.17     85.86      0.63
  31                 213.36      9.09    295.15     81.79      0.91
  32                 216.41      9.09    294.40     77.99      0.93
  9                  243.84   -419.86    243.84      0.00      1.00  Reservoir
  2                  259.08      0.00    296.59     37.51      1.03  Tank
   
   
  MINIMUM Link Results:
  ------------------------------------------------------------------------------------------------
                     Length  Diameter      Flow  Velocity  Headloss   Setting  Reaction  F-Factor
  Link                    m        mm      m3/h       m/s    /1000m            mg/L/day          
  ------------------------------------------------------------------------------------------------
  10                3209.54    457.20     99.94      0.17      0.12    100.00      8.65     0.032
  11                1609.34    355.60     56.70      0.16      0.15    100.00     10.26     0.033
  12                1609.34    254.00     14.76      0.08      0.06    100.00      6.22     0.039
  21                1609.34    254.00      4.08      0.02      0.01    100.00      8.67     0.041
  22                1609.34    304.80      7.95      0.03      0.01    100.00      3.57     0.044
  31                1609.34    152.40      2.82      0.04      0.04    100.00     11.05     0.047
  110                 60.96    457.20      0.00      0.00      0.00    100.00      2.52     0.000
  111               1609.34    254.00     29.61      0.16      0.23    100.00     13.67     0.035
  112               1609.34    304.80     25.19      0.10      0.07    100.00      5.07     0.037
  113               1609.34    203.20      3.10      0.03      0.01    100.00      3.52     0.044
  121               1609.34    203.20     11.91      0.10      0.13    100.00     12.94     0.039
  122               1609.34    152.40      6.26      0.10      0.16    100.00     14.60     0.042
  9                    0.00    304.80     99.94      0.00    -99.41      1.00      0.00     0.000  Pump
   